New Loadshape.PV_1_1 npts=1 sinterval=1, mult=1
New Loadshape.PV_1_2 npts=1 sinterval=1, mult=1
New Loadshape.PV_1_3 npts=1 sinterval=1, mult=1
New Loadshape.PV_1_4 npts=1 sinterval=1, mult=1
New Loadshape.PV_1_5 npts=1 sinterval=1, mult=1
New Loadshape.PV_1_6 npts=1 sinterval=1, mult=1
New Loadshape.PV_1_7 npts=1 sinterval=1, mult=1
New Loadshape.PV_1_8 npts=1 sinterval=1, mult=1
New Loadshape.PV_1_9 npts=1 sinterval=1, mult=1
New Loadshape.PV_1_10 npts=1 sinterval=1, mult=1
New Loadshape.PV_1_11 npts=1 sinterval=1, mult=1
New Loadshape.PV_1_12 npts=1 sinterval=1, mult=1
New Loadshape.PV_1_13 npts=1 sinterval=1, mult=1
New Loadshape.PV_1_14 npts=1 sinterval=1, mult=1
New Loadshape.PV_1_15 npts=1 sinterval=1, mult=1
New Loadshape.PV_1_16 npts=1 sinterval=1, mult=1
New Loadshape.PV_1_17 npts=1 sinterval=1, mult=1
New Loadshape.PV_1_18 npts=1 sinterval=1, mult=1
New Loadshape.PV_1_19 npts=1 sinterval=1, mult=1
New Loadshape.PV_1_20 npts=1 sinterval=1, mult=1
New Loadshape.PV_1_21 npts=1 sinterval=1, mult=1
New Loadshape.PV_1_22 npts=1 sinterval=1, mult=1
New Loadshape.PV_1_23 npts=1 sinterval=1, mult=1
New Loadshape.PV_1_24 npts=1 sinterval=1, mult=1
New Loadshape.PV_1_25 npts=1 sinterval=1, mult=1
New Loadshape.PV_1_26 npts=1 sinterval=1, mult=1
New Loadshape.PV_1_27 npts=1 sinterval=1, mult=1
New Loadshape.PV_1_28 npts=1 sinterval=1, mult=1
New Loadshape.PV_1_29 npts=1 sinterval=1, mult=1
New Loadshape.PV_1_30 npts=1 sinterval=1, mult=1
New Loadshape.PV_1_31 npts=1 sinterval=1, mult=1
New Loadshape.PV_1_32 npts=1 sinterval=1, mult=1
New Loadshape.PV_2_1 npts=1 sinterval=1, mult=1
New Loadshape.PV_2_2 npts=1 sinterval=1, mult=1
New Loadshape.PV_2_3 npts=1 sinterval=1, mult=1
New Loadshape.PV_2_4 npts=1 sinterval=1, mult=1
New Loadshape.PV_2_5 npts=1 sinterval=1, mult=1
New Loadshape.PV_2_6 npts=1 sinterval=1, mult=1
New Loadshape.PV_2_7 npts=1 sinterval=1, mult=1
New Loadshape.PV_2_8 npts=1 sinterval=1, mult=1
New Loadshape.PV_2_9 npts=1 sinterval=1, mult=1
New Loadshape.PV_2_10 npts=1 sinterval=1, mult=1
New Loadshape.PV_2_11 npts=1 sinterval=1, mult=1
New Loadshape.PV_2_12 npts=1 sinterval=1, mult=1
New Loadshape.PV_2_13 npts=1 sinterval=1, mult=1
New Loadshape.PV_2_14 npts=1 sinterval=1, mult=1
New Loadshape.PV_2_15 npts=1 sinterval=1, mult=1
New Loadshape.PV_2_16 npts=1 sinterval=1, mult=1
New Loadshape.PV_2_17 npts=1 sinterval=1, mult=1
New Loadshape.PV_2_18 npts=1 sinterval=1, mult=1
New Loadshape.PV_2_19 npts=1 sinterval=1, mult=1
New Loadshape.PV_2_20 npts=1 sinterval=1, mult=1
New Loadshape.PV_2_21 npts=1 sinterval=1, mult=1
New Loadshape.PV_2_22 npts=1 sinterval=1, mult=1
New Loadshape.PV_2_23 npts=1 sinterval=1, mult=1
New Loadshape.PV_2_24 npts=1 sinterval=1, mult=1
New Loadshape.PV_2_25 npts=1 sinterval=1, mult=1
New Loadshape.PV_2_26 npts=1 sinterval=1, mult=1
New Loadshape.PV_2_27 npts=1 sinterval=1, mult=1
New Loadshape.PV_2_28 npts=1 sinterval=1, mult=1
New Loadshape.PV_2_29 npts=1 sinterval=1, mult=1
New Loadshape.PV_2_30 npts=1 sinterval=1, mult=1
New Loadshape.PV_2_31 npts=1 sinterval=1, mult=1
New Loadshape.PV_2_32 npts=1 sinterval=1, mult=1
New Loadshape.PV_3_1 npts=1 sinterval=1, mult=1
New Loadshape.PV_3_2 npts=1 sinterval=1, mult=1
New Loadshape.PV_3_3 npts=1 sinterval=1, mult=1
New Loadshape.PV_3_4 npts=1 sinterval=1, mult=1
New Loadshape.PV_3_5 npts=1 sinterval=1, mult=1
New Loadshape.PV_3_6 npts=1 sinterval=1, mult=1
New Loadshape.PV_3_7 npts=1 sinterval=1, mult=1
New Loadshape.PV_3_8 npts=1 sinterval=1, mult=1
New Loadshape.PV_3_9 npts=1 sinterval=1, mult=1
New Loadshape.PV_3_10 npts=1 sinterval=1, mult=1
New Loadshape.PV_3_11 npts=1 sinterval=1, mult=1
New Loadshape.PV_3_12 npts=1 sinterval=1, mult=1
New Loadshape.PV_3_13 npts=1 sinterval=1, mult=1
New Loadshape.PV_3_14 npts=1 sinterval=1, mult=1
New Loadshape.PV_3_15 npts=1 sinterval=1, mult=1
New Loadshape.PV_3_16 npts=1 sinterval=1, mult=1
New Loadshape.PV_3_17 npts=1 sinterval=1, mult=1
New Loadshape.PV_3_18 npts=1 sinterval=1, mult=1
New Loadshape.PV_3_19 npts=1 sinterval=1, mult=1
New Loadshape.PV_3_20 npts=1 sinterval=1, mult=1
New Loadshape.PV_3_21 npts=1 sinterval=1, mult=1
New Loadshape.PV_3_22 npts=1 sinterval=1, mult=1
New Loadshape.PV_3_23 npts=1 sinterval=1, mult=1
New Loadshape.PV_3_24 npts=1 sinterval=1, mult=1
New Loadshape.PV_3_25 npts=1 sinterval=1, mult=1
New Loadshape.PV_3_26 npts=1 sinterval=1, mult=1
New Loadshape.PV_3_27 npts=1 sinterval=1, mult=1
New Loadshape.PV_3_28 npts=1 sinterval=1, mult=1
New Loadshape.PV_3_29 npts=1 sinterval=1, mult=1
New Loadshape.PV_3_30 npts=1 sinterval=1, mult=1
New Loadshape.PV_3_31 npts=1 sinterval=1, mult=1
New Loadshape.PV_3_32 npts=1 sinterval=1, mult=1
New Loadshape.PV_4_1 npts=1 sinterval=1, mult=1
New Loadshape.PV_4_2 npts=1 sinterval=1, mult=1
New Loadshape.PV_4_3 npts=1 sinterval=1, mult=1
New Loadshape.PV_4_4 npts=1 sinterval=1, mult=1
New Loadshape.PV_4_5 npts=1 sinterval=1, mult=1
New Loadshape.PV_4_6 npts=1 sinterval=1, mult=1
New Loadshape.PV_4_7 npts=1 sinterval=1, mult=1
New Loadshape.PV_4_8 npts=1 sinterval=1, mult=1
New Loadshape.PV_4_9 npts=1 sinterval=1, mult=1
New Loadshape.PV_4_10 npts=1 sinterval=1, mult=1
New Loadshape.PV_4_11 npts=1 sinterval=1, mult=1
New Loadshape.PV_4_12 npts=1 sinterval=1, mult=1
New Loadshape.PV_4_13 npts=1 sinterval=1, mult=1
New Loadshape.PV_4_14 npts=1 sinterval=1, mult=1
New Loadshape.PV_4_15 npts=1 sinterval=1, mult=1
New Loadshape.PV_4_16 npts=1 sinterval=1, mult=1
New Loadshape.PV_4_17 npts=1 sinterval=1, mult=1
New Loadshape.PV_4_18 npts=1 sinterval=1, mult=1
New Loadshape.PV_4_19 npts=1 sinterval=1, mult=1
New Loadshape.PV_4_20 npts=1 sinterval=1, mult=1
New Loadshape.PV_4_21 npts=1 sinterval=1, mult=1
New Loadshape.PV_4_22 npts=1 sinterval=1, mult=1
New Loadshape.PV_4_23 npts=1 sinterval=1, mult=1
New Loadshape.PV_4_24 npts=1 sinterval=1, mult=1
New Loadshape.PV_4_25 npts=1 sinterval=1, mult=1
New Loadshape.PV_4_26 npts=1 sinterval=1, mult=1
New Loadshape.PV_4_27 npts=1 sinterval=1, mult=1
New Loadshape.PV_4_28 npts=1 sinterval=1, mult=1
New Loadshape.PV_4_29 npts=1 sinterval=1, mult=1
New Loadshape.PV_4_30 npts=1 sinterval=1, mult=1
New Loadshape.PV_4_31 npts=1 sinterval=1, mult=1
New Loadshape.PV_4_32 npts=1 sinterval=1, mult=1
New Loadshape.PV_5_1 npts=1 sinterval=1, mult=1
New Loadshape.PV_5_2 npts=1 sinterval=1, mult=1
New Loadshape.PV_5_3 npts=1 sinterval=1, mult=1
New Loadshape.PV_5_4 npts=1 sinterval=1, mult=1
New Loadshape.PV_5_5 npts=1 sinterval=1, mult=1
New Loadshape.PV_5_6 npts=1 sinterval=1, mult=1
New Loadshape.PV_5_7 npts=1 sinterval=1, mult=1
New Loadshape.PV_5_8 npts=1 sinterval=1, mult=1
New Loadshape.PV_5_9 npts=1 sinterval=1, mult=1
New Loadshape.PV_5_10 npts=1 sinterval=1, mult=1
New Loadshape.PV_5_11 npts=1 sinterval=1, mult=1
New Loadshape.PV_5_12 npts=1 sinterval=1, mult=1
New Loadshape.PV_5_13 npts=1 sinterval=1, mult=1
New Loadshape.PV_5_14 npts=1 sinterval=1, mult=1
New Loadshape.PV_5_15 npts=1 sinterval=1, mult=1
New Loadshape.PV_5_16 npts=1 sinterval=1, mult=1
New Loadshape.PV_5_17 npts=1 sinterval=1, mult=1
New Loadshape.PV_5_18 npts=1 sinterval=1, mult=1
New Loadshape.PV_5_19 npts=1 sinterval=1, mult=1
New Loadshape.PV_5_20 npts=1 sinterval=1, mult=1
New Loadshape.PV_5_21 npts=1 sinterval=1, mult=1
New Loadshape.PV_5_22 npts=1 sinterval=1, mult=1
New Loadshape.PV_5_23 npts=1 sinterval=1, mult=1
New Loadshape.PV_5_24 npts=1 sinterval=1, mult=1
New Loadshape.PV_5_25 npts=1 sinterval=1, mult=1
New Loadshape.PV_5_26 npts=1 sinterval=1, mult=1
New Loadshape.PV_5_27 npts=1 sinterval=1, mult=1
New Loadshape.PV_5_28 npts=1 sinterval=1, mult=1
New Loadshape.PV_5_29 npts=1 sinterval=1, mult=1
New Loadshape.PV_5_30 npts=1 sinterval=1, mult=1
New Loadshape.PV_5_31 npts=1 sinterval=1, mult=1
New Loadshape.PV_5_32 npts=1 sinterval=1, mult=1
New Loadshape.PV_6_1 npts=1 sinterval=1, mult=1
New Loadshape.PV_6_2 npts=1 sinterval=1, mult=1
New Loadshape.PV_6_3 npts=1 sinterval=1, mult=1
New Loadshape.PV_6_4 npts=1 sinterval=1, mult=1
New Loadshape.PV_6_5 npts=1 sinterval=1, mult=1
New Loadshape.PV_6_6 npts=1 sinterval=1, mult=1
New Loadshape.PV_6_7 npts=1 sinterval=1, mult=1
New Loadshape.PV_6_8 npts=1 sinterval=1, mult=1
New Loadshape.PV_6_9 npts=1 sinterval=1, mult=1
New Loadshape.PV_6_10 npts=1 sinterval=1, mult=1
New Loadshape.PV_6_11 npts=1 sinterval=1, mult=1
New Loadshape.PV_6_12 npts=1 sinterval=1, mult=1
New Loadshape.PV_6_13 npts=1 sinterval=1, mult=1
New Loadshape.PV_6_14 npts=1 sinterval=1, mult=1
New Loadshape.PV_6_15 npts=1 sinterval=1, mult=1
New Loadshape.PV_6_16 npts=1 sinterval=1, mult=1
New Loadshape.PV_6_17 npts=1 sinterval=1, mult=1
New Loadshape.PV_6_18 npts=1 sinterval=1, mult=1
New Loadshape.PV_6_19 npts=1 sinterval=1, mult=1
New Loadshape.PV_6_20 npts=1 sinterval=1, mult=1
New Loadshape.PV_6_21 npts=1 sinterval=1, mult=1
New Loadshape.PV_6_22 npts=1 sinterval=1, mult=1
New Loadshape.PV_6_23 npts=1 sinterval=1, mult=1
New Loadshape.PV_6_24 npts=1 sinterval=1, mult=1
New Loadshape.PV_6_25 npts=1 sinterval=1, mult=1
New Loadshape.PV_6_26 npts=1 sinterval=1, mult=1
New Loadshape.PV_6_27 npts=1 sinterval=1, mult=1
New Loadshape.PV_6_28 npts=1 sinterval=1, mult=1
New Loadshape.PV_6_29 npts=1 sinterval=1, mult=1
New Loadshape.PV_6_30 npts=1 sinterval=1, mult=1
New Loadshape.PV_6_31 npts=1 sinterval=1, mult=1
New Loadshape.PV_6_32 npts=1 sinterval=1, mult=1
New Loadshape.PV_7_1 npts=1 sinterval=1, mult=1
New Loadshape.PV_7_2 npts=1 sinterval=1, mult=1
New Loadshape.PV_7_3 npts=1 sinterval=1, mult=1
New Loadshape.PV_7_4 npts=1 sinterval=1, mult=1
New Loadshape.PV_7_5 npts=1 sinterval=1, mult=1
New Loadshape.PV_7_6 npts=1 sinterval=1, mult=1
New Loadshape.PV_7_7 npts=1 sinterval=1, mult=1
New Loadshape.PV_7_8 npts=1 sinterval=1, mult=1
New Loadshape.PV_7_9 npts=1 sinterval=1, mult=1
New Loadshape.PV_7_10 npts=1 sinterval=1, mult=1
New Loadshape.PV_7_11 npts=1 sinterval=1, mult=1
New Loadshape.PV_7_12 npts=1 sinterval=1, mult=1
New Loadshape.PV_7_13 npts=1 sinterval=1, mult=1
New Loadshape.PV_7_14 npts=1 sinterval=1, mult=1
New Loadshape.PV_7_15 npts=1 sinterval=1, mult=1
New Loadshape.PV_7_16 npts=1 sinterval=1, mult=1
New Loadshape.PV_7_17 npts=1 sinterval=1, mult=1
New Loadshape.PV_7_18 npts=1 sinterval=1, mult=1
New Loadshape.PV_7_19 npts=1 sinterval=1, mult=1
New Loadshape.PV_7_20 npts=1 sinterval=1, mult=1
New Loadshape.PV_7_21 npts=1 sinterval=1, mult=1
New Loadshape.PV_7_22 npts=1 sinterval=1, mult=1
New Loadshape.PV_7_23 npts=1 sinterval=1, mult=1
New Loadshape.PV_7_24 npts=1 sinterval=1, mult=1
New Loadshape.PV_7_25 npts=1 sinterval=1, mult=1
New Loadshape.PV_7_26 npts=1 sinterval=1, mult=1
New Loadshape.PV_7_27 npts=1 sinterval=1, mult=1
New Loadshape.PV_7_28 npts=1 sinterval=1, mult=1
New Loadshape.PV_7_29 npts=1 sinterval=1, mult=1
New Loadshape.PV_7_30 npts=1 sinterval=1, mult=1
New Loadshape.PV_7_31 npts=1 sinterval=1, mult=1
New Loadshape.PV_7_32 npts=1 sinterval=1, mult=1
New Loadshape.PV_8_1 npts=1 sinterval=1, mult=1
New Loadshape.PV_8_2 npts=1 sinterval=1, mult=1
New Loadshape.PV_8_3 npts=1 sinterval=1, mult=1
New Loadshape.PV_8_4 npts=1 sinterval=1, mult=1
New Loadshape.PV_8_5 npts=1 sinterval=1, mult=1
New Loadshape.PV_8_6 npts=1 sinterval=1, mult=1
New Loadshape.PV_8_7 npts=1 sinterval=1, mult=1
New Loadshape.PV_8_8 npts=1 sinterval=1, mult=1
New Loadshape.PV_8_9 npts=1 sinterval=1, mult=1
New Loadshape.PV_8_10 npts=1 sinterval=1, mult=1
New Loadshape.PV_8_11 npts=1 sinterval=1, mult=1
New Loadshape.PV_8_12 npts=1 sinterval=1, mult=1
New Loadshape.PV_8_13 npts=1 sinterval=1, mult=1
New Loadshape.PV_8_14 npts=1 sinterval=1, mult=1
New Loadshape.PV_8_15 npts=1 sinterval=1, mult=1
New Loadshape.PV_8_16 npts=1 sinterval=1, mult=1
New Loadshape.PV_8_17 npts=1 sinterval=1, mult=1
New Loadshape.PV_8_18 npts=1 sinterval=1, mult=1
New Loadshape.PV_8_19 npts=1 sinterval=1, mult=1
New Loadshape.PV_8_20 npts=1 sinterval=1, mult=1
New Loadshape.PV_8_21 npts=1 sinterval=1, mult=1
New Loadshape.PV_8_22 npts=1 sinterval=1, mult=1
New Loadshape.PV_8_23 npts=1 sinterval=1, mult=1
New Loadshape.PV_8_24 npts=1 sinterval=1, mult=1
New Loadshape.PV_8_25 npts=1 sinterval=1, mult=1
New Loadshape.PV_8_26 npts=1 sinterval=1, mult=1
New Loadshape.PV_8_27 npts=1 sinterval=1, mult=1
New Loadshape.PV_8_28 npts=1 sinterval=1, mult=1
New Loadshape.PV_8_29 npts=1 sinterval=1, mult=1
New Loadshape.PV_8_30 npts=1 sinterval=1, mult=1
New Loadshape.PV_8_31 npts=1 sinterval=1, mult=1
New Loadshape.PV_8_32 npts=1 sinterval=1, mult=1
New Loadshape.PV_9_1 npts=1 sinterval=1, mult=1
New Loadshape.PV_9_2 npts=1 sinterval=1, mult=1
New Loadshape.PV_9_3 npts=1 sinterval=1, mult=1
New Loadshape.PV_9_4 npts=1 sinterval=1, mult=1
New Loadshape.PV_9_5 npts=1 sinterval=1, mult=1
New Loadshape.PV_9_6 npts=1 sinterval=1, mult=1
New Loadshape.PV_9_7 npts=1 sinterval=1, mult=1
New Loadshape.PV_9_8 npts=1 sinterval=1, mult=1
New Loadshape.PV_9_9 npts=1 sinterval=1, mult=1
New Loadshape.PV_9_10 npts=1 sinterval=1, mult=1
New Loadshape.PV_9_11 npts=1 sinterval=1, mult=1
New Loadshape.PV_9_12 npts=1 sinterval=1, mult=1
New Loadshape.PV_9_13 npts=1 sinterval=1, mult=1
New Loadshape.PV_9_14 npts=1 sinterval=1, mult=1
New Loadshape.PV_9_15 npts=1 sinterval=1, mult=1
New Loadshape.PV_9_16 npts=1 sinterval=1, mult=1
New Loadshape.PV_9_17 npts=1 sinterval=1, mult=1
New Loadshape.PV_9_18 npts=1 sinterval=1, mult=1
New Loadshape.PV_9_19 npts=1 sinterval=1, mult=1
New Loadshape.PV_9_20 npts=1 sinterval=1, mult=1
New Loadshape.PV_9_21 npts=1 sinterval=1, mult=1
New Loadshape.PV_9_22 npts=1 sinterval=1, mult=1
New Loadshape.PV_9_23 npts=1 sinterval=1, mult=1
New Loadshape.PV_9_24 npts=1 sinterval=1, mult=1
New Loadshape.PV_9_25 npts=1 sinterval=1, mult=1
New Loadshape.PV_9_26 npts=1 sinterval=1, mult=1
New Loadshape.PV_9_27 npts=1 sinterval=1, mult=1
New Loadshape.PV_9_28 npts=1 sinterval=1, mult=1
New Loadshape.PV_9_29 npts=1 sinterval=1, mult=1
New Loadshape.PV_9_30 npts=1 sinterval=1, mult=1
New Loadshape.PV_9_31 npts=1 sinterval=1, mult=1
New Loadshape.PV_9_32 npts=1 sinterval=1, mult=1
New Loadshape.PV_10_1 npts=1 sinterval=1, mult=1
New Loadshape.PV_10_2 npts=1 sinterval=1, mult=1
New Loadshape.PV_10_3 npts=1 sinterval=1, mult=1
New Loadshape.PV_10_4 npts=1 sinterval=1, mult=1
New Loadshape.PV_10_5 npts=1 sinterval=1, mult=1
New Loadshape.PV_10_6 npts=1 sinterval=1, mult=1
New Loadshape.PV_10_7 npts=1 sinterval=1, mult=1
New Loadshape.PV_10_8 npts=1 sinterval=1, mult=1
New Loadshape.PV_10_9 npts=1 sinterval=1, mult=1
New Loadshape.PV_10_10 npts=1 sinterval=1, mult=1
New Loadshape.PV_10_11 npts=1 sinterval=1, mult=1
New Loadshape.PV_10_12 npts=1 sinterval=1, mult=1
New Loadshape.PV_10_13 npts=1 sinterval=1, mult=1
New Loadshape.PV_10_14 npts=1 sinterval=1, mult=1
New Loadshape.PV_10_15 npts=1 sinterval=1, mult=1
New Loadshape.PV_10_16 npts=1 sinterval=1, mult=1
New Loadshape.PV_10_17 npts=1 sinterval=1, mult=1
New Loadshape.PV_10_18 npts=1 sinterval=1, mult=1
New Loadshape.PV_10_19 npts=1 sinterval=1, mult=1
New Loadshape.PV_10_20 npts=1 sinterval=1, mult=1
New Loadshape.PV_10_21 npts=1 sinterval=1, mult=1
New Loadshape.PV_10_22 npts=1 sinterval=1, mult=1
New Loadshape.PV_10_23 npts=1 sinterval=1, mult=1
New Loadshape.PV_10_24 npts=1 sinterval=1, mult=1
New Loadshape.PV_10_25 npts=1 sinterval=1, mult=1
New Loadshape.PV_10_26 npts=1 sinterval=1, mult=1
New Loadshape.PV_10_27 npts=1 sinterval=1, mult=1
New Loadshape.PV_10_28 npts=1 sinterval=1, mult=1
New Loadshape.PV_10_29 npts=1 sinterval=1, mult=1
New Loadshape.PV_10_30 npts=1 sinterval=1, mult=1
New Loadshape.PV_10_31 npts=1 sinterval=1, mult=1
New Loadshape.PV_10_32 npts=1 sinterval=1, mult=1
New Loadshape.PV_11_1 npts=1 sinterval=1, mult=1
New Loadshape.PV_11_2 npts=1 sinterval=1, mult=1
New Loadshape.PV_11_3 npts=1 sinterval=1, mult=1
New Loadshape.PV_11_4 npts=1 sinterval=1, mult=1
New Loadshape.PV_11_5 npts=1 sinterval=1, mult=1
New Loadshape.PV_11_6 npts=1 sinterval=1, mult=1
New Loadshape.PV_11_7 npts=1 sinterval=1, mult=1
New Loadshape.PV_11_8 npts=1 sinterval=1, mult=1
New Loadshape.PV_11_9 npts=1 sinterval=1, mult=1
New Loadshape.PV_11_10 npts=1 sinterval=1, mult=1
New Loadshape.PV_11_11 npts=1 sinterval=1, mult=1
New Loadshape.PV_11_12 npts=1 sinterval=1, mult=1
New Loadshape.PV_11_13 npts=1 sinterval=1, mult=1
New Loadshape.PV_11_14 npts=1 sinterval=1, mult=1
New Loadshape.PV_11_15 npts=1 sinterval=1, mult=1
New Loadshape.PV_11_16 npts=1 sinterval=1, mult=1
New Loadshape.PV_11_17 npts=1 sinterval=1, mult=1
New Loadshape.PV_11_18 npts=1 sinterval=1, mult=1
New Loadshape.PV_11_19 npts=1 sinterval=1, mult=1
New Loadshape.PV_11_20 npts=1 sinterval=1, mult=1
New Loadshape.PV_11_21 npts=1 sinterval=1, mult=1
New Loadshape.PV_11_22 npts=1 sinterval=1, mult=1
New Loadshape.PV_11_23 npts=1 sinterval=1, mult=1
New Loadshape.PV_11_24 npts=1 sinterval=1, mult=1
New Loadshape.PV_11_25 npts=1 sinterval=1, mult=1
New Loadshape.PV_11_26 npts=1 sinterval=1, mult=1
New Loadshape.PV_11_27 npts=1 sinterval=1, mult=1
New Loadshape.PV_11_28 npts=1 sinterval=1, mult=1
New Loadshape.PV_11_29 npts=1 sinterval=1, mult=1
New Loadshape.PV_11_30 npts=1 sinterval=1, mult=1
New Loadshape.PV_11_31 npts=1 sinterval=1, mult=1
New Loadshape.PV_11_32 npts=1 sinterval=1, mult=1
New Loadshape.PV_12_1 npts=1 sinterval=1, mult=1
New Loadshape.PV_12_2 npts=1 sinterval=1, mult=1
New Loadshape.PV_12_3 npts=1 sinterval=1, mult=1
New Loadshape.PV_12_4 npts=1 sinterval=1, mult=1
New Loadshape.PV_12_5 npts=1 sinterval=1, mult=1
New Loadshape.PV_12_6 npts=1 sinterval=1, mult=1
New Loadshape.PV_12_7 npts=1 sinterval=1, mult=1
New Loadshape.PV_12_8 npts=1 sinterval=1, mult=1
New Loadshape.PV_12_9 npts=1 sinterval=1, mult=1
New Loadshape.PV_12_10 npts=1 sinterval=1, mult=1
New Loadshape.PV_12_11 npts=1 sinterval=1, mult=1
New Loadshape.PV_12_12 npts=1 sinterval=1, mult=1
New Loadshape.PV_12_13 npts=1 sinterval=1, mult=1
New Loadshape.PV_12_14 npts=1 sinterval=1, mult=1
New Loadshape.PV_12_15 npts=1 sinterval=1, mult=1
New Loadshape.PV_12_16 npts=1 sinterval=1, mult=1
New Loadshape.PV_12_17 npts=1 sinterval=1, mult=1
New Loadshape.PV_12_18 npts=1 sinterval=1, mult=1
New Loadshape.PV_12_19 npts=1 sinterval=1, mult=1
New Loadshape.PV_12_20 npts=1 sinterval=1, mult=1
New Loadshape.PV_12_21 npts=1 sinterval=1, mult=1
New Loadshape.PV_12_22 npts=1 sinterval=1, mult=1
New Loadshape.PV_12_23 npts=1 sinterval=1, mult=1
New Loadshape.PV_12_24 npts=1 sinterval=1, mult=1
New Loadshape.PV_12_25 npts=1 sinterval=1, mult=1
New Loadshape.PV_12_26 npts=1 sinterval=1, mult=1
New Loadshape.PV_12_27 npts=1 sinterval=1, mult=1
New Loadshape.PV_12_28 npts=1 sinterval=1, mult=1
New Loadshape.PV_12_29 npts=1 sinterval=1, mult=1
New Loadshape.PV_12_30 npts=1 sinterval=1, mult=1
New Loadshape.PV_12_31 npts=1 sinterval=1, mult=1
New Loadshape.PV_12_32 npts=1 sinterval=1, mult=1
New Loadshape.PV_13_1 npts=1 sinterval=1, mult=1
New Loadshape.PV_13_2 npts=1 sinterval=1, mult=1
New Loadshape.PV_13_3 npts=1 sinterval=1, mult=1
New Loadshape.PV_13_4 npts=1 sinterval=1, mult=1
New Loadshape.PV_13_5 npts=1 sinterval=1, mult=1
New Loadshape.PV_13_6 npts=1 sinterval=1, mult=1
New Loadshape.PV_13_7 npts=1 sinterval=1, mult=1
New Loadshape.PV_13_8 npts=1 sinterval=1, mult=1
New Loadshape.PV_13_9 npts=1 sinterval=1, mult=1
New Loadshape.PV_13_10 npts=1 sinterval=1, mult=1
New Loadshape.PV_13_11 npts=1 sinterval=1, mult=1
New Loadshape.PV_13_12 npts=1 sinterval=1, mult=1
New Loadshape.PV_13_13 npts=1 sinterval=1, mult=1
New Loadshape.PV_13_14 npts=1 sinterval=1, mult=1
New Loadshape.PV_13_15 npts=1 sinterval=1, mult=1
New Loadshape.PV_13_16 npts=1 sinterval=1, mult=1
New Loadshape.PV_13_17 npts=1 sinterval=1, mult=1
New Loadshape.PV_13_18 npts=1 sinterval=1, mult=1
New Loadshape.PV_13_19 npts=1 sinterval=1, mult=1
New Loadshape.PV_13_20 npts=1 sinterval=1, mult=1
New Loadshape.PV_13_21 npts=1 sinterval=1, mult=1
New Loadshape.PV_13_22 npts=1 sinterval=1, mult=1
New Loadshape.PV_13_23 npts=1 sinterval=1, mult=1
New Loadshape.PV_13_24 npts=1 sinterval=1, mult=1
New Loadshape.PV_13_25 npts=1 sinterval=1, mult=1
New Loadshape.PV_13_26 npts=1 sinterval=1, mult=1
New Loadshape.PV_13_27 npts=1 sinterval=1, mult=1
New Loadshape.PV_13_28 npts=1 sinterval=1, mult=1
New Loadshape.PV_13_29 npts=1 sinterval=1, mult=1
New Loadshape.PV_13_30 npts=1 sinterval=1, mult=1
New Loadshape.PV_13_31 npts=1 sinterval=1, mult=1
New Loadshape.PV_13_32 npts=1 sinterval=1, mult=1
New Loadshape.PV_14_1 npts=1 sinterval=1, mult=1
New Loadshape.PV_14_2 npts=1 sinterval=1, mult=1
New Loadshape.PV_14_3 npts=1 sinterval=1, mult=1
New Loadshape.PV_14_4 npts=1 sinterval=1, mult=1
New Loadshape.PV_14_5 npts=1 sinterval=1, mult=1
New Loadshape.PV_14_6 npts=1 sinterval=1, mult=1
New Loadshape.PV_14_7 npts=1 sinterval=1, mult=1
New Loadshape.PV_14_8 npts=1 sinterval=1, mult=1
New Loadshape.PV_14_9 npts=1 sinterval=1, mult=1
New Loadshape.PV_14_10 npts=1 sinterval=1, mult=1
New Loadshape.PV_14_11 npts=1 sinterval=1, mult=1
New Loadshape.PV_14_12 npts=1 sinterval=1, mult=1
New Loadshape.PV_14_13 npts=1 sinterval=1, mult=1
New Loadshape.PV_14_14 npts=1 sinterval=1, mult=1
New Loadshape.PV_14_15 npts=1 sinterval=1, mult=1
New Loadshape.PV_14_16 npts=1 sinterval=1, mult=1
New Loadshape.PV_14_17 npts=1 sinterval=1, mult=1
New Loadshape.PV_14_18 npts=1 sinterval=1, mult=1
New Loadshape.PV_14_19 npts=1 sinterval=1, mult=1
New Loadshape.PV_14_20 npts=1 sinterval=1, mult=1
New Loadshape.PV_14_21 npts=1 sinterval=1, mult=1
New Loadshape.PV_14_22 npts=1 sinterval=1, mult=1
New Loadshape.PV_14_23 npts=1 sinterval=1, mult=1
New Loadshape.PV_14_24 npts=1 sinterval=1, mult=1
New Loadshape.PV_14_25 npts=1 sinterval=1, mult=1
New Loadshape.PV_14_26 npts=1 sinterval=1, mult=1
New Loadshape.PV_14_27 npts=1 sinterval=1, mult=1
New Loadshape.PV_14_28 npts=1 sinterval=1, mult=1
New Loadshape.PV_14_29 npts=1 sinterval=1, mult=1
New Loadshape.PV_14_30 npts=1 sinterval=1, mult=1
New Loadshape.PV_14_31 npts=1 sinterval=1, mult=1
New Loadshape.PV_14_32 npts=1 sinterval=1, mult=1
New Loadshape.PV_15_1 npts=1 sinterval=1, mult=1
New Loadshape.PV_15_2 npts=1 sinterval=1, mult=1
New Loadshape.PV_15_3 npts=1 sinterval=1, mult=1
New Loadshape.PV_15_4 npts=1 sinterval=1, mult=1
New Loadshape.PV_15_5 npts=1 sinterval=1, mult=1
New Loadshape.PV_15_6 npts=1 sinterval=1, mult=1
New Loadshape.PV_15_7 npts=1 sinterval=1, mult=1
New Loadshape.PV_15_8 npts=1 sinterval=1, mult=1
New Loadshape.PV_15_9 npts=1 sinterval=1, mult=1
New Loadshape.PV_15_10 npts=1 sinterval=1, mult=1
New Loadshape.PV_15_11 npts=1 sinterval=1, mult=1
New Loadshape.PV_15_12 npts=1 sinterval=1, mult=1
New Loadshape.PV_15_13 npts=1 sinterval=1, mult=1
New Loadshape.PV_15_14 npts=1 sinterval=1, mult=1
New Loadshape.PV_15_15 npts=1 sinterval=1, mult=1
New Loadshape.PV_15_16 npts=1 sinterval=1, mult=1
New Loadshape.PV_15_17 npts=1 sinterval=1, mult=1
New Loadshape.PV_15_18 npts=1 sinterval=1, mult=1
New Loadshape.PV_15_19 npts=1 sinterval=1, mult=1
New Loadshape.PV_15_20 npts=1 sinterval=1, mult=1
New Loadshape.PV_15_21 npts=1 sinterval=1, mult=1
New Loadshape.PV_15_22 npts=1 sinterval=1, mult=1
New Loadshape.PV_15_23 npts=1 sinterval=1, mult=1
New Loadshape.PV_15_24 npts=1 sinterval=1, mult=1
New Loadshape.PV_15_25 npts=1 sinterval=1, mult=1
New Loadshape.PV_15_26 npts=1 sinterval=1, mult=1
New Loadshape.PV_15_27 npts=1 sinterval=1, mult=1
New Loadshape.PV_15_28 npts=1 sinterval=1, mult=1
New Loadshape.PV_15_29 npts=1 sinterval=1, mult=1
New Loadshape.PV_15_30 npts=1 sinterval=1, mult=1
New Loadshape.PV_15_31 npts=1 sinterval=1, mult=1
New Loadshape.PV_15_32 npts=1 sinterval=1, mult=1
New Loadshape.PV_16_1 npts=1 sinterval=1, mult=1
New Loadshape.PV_16_2 npts=1 sinterval=1, mult=1
New Loadshape.PV_16_3 npts=1 sinterval=1, mult=1
New Loadshape.PV_16_4 npts=1 sinterval=1, mult=1
New Loadshape.PV_16_5 npts=1 sinterval=1, mult=1
New Loadshape.PV_16_6 npts=1 sinterval=1, mult=1
New Loadshape.PV_16_7 npts=1 sinterval=1, mult=1
New Loadshape.PV_16_8 npts=1 sinterval=1, mult=1
New Loadshape.PV_16_9 npts=1 sinterval=1, mult=1
New Loadshape.PV_16_10 npts=1 sinterval=1, mult=1
New Loadshape.PV_16_11 npts=1 sinterval=1, mult=1
New Loadshape.PV_16_12 npts=1 sinterval=1, mult=1
New Loadshape.PV_16_13 npts=1 sinterval=1, mult=1
New Loadshape.PV_16_14 npts=1 sinterval=1, mult=1
New Loadshape.PV_16_15 npts=1 sinterval=1, mult=1
New Loadshape.PV_16_16 npts=1 sinterval=1, mult=1
New Loadshape.PV_16_17 npts=1 sinterval=1, mult=1
New Loadshape.PV_16_18 npts=1 sinterval=1, mult=1
New Loadshape.PV_16_19 npts=1 sinterval=1, mult=1
New Loadshape.PV_16_20 npts=1 sinterval=1, mult=1
New Loadshape.PV_16_21 npts=1 sinterval=1, mult=1
New Loadshape.PV_16_22 npts=1 sinterval=1, mult=1
New Loadshape.PV_16_23 npts=1 sinterval=1, mult=1
New Loadshape.PV_16_24 npts=1 sinterval=1, mult=1
New Loadshape.PV_16_25 npts=1 sinterval=1, mult=1
New Loadshape.PV_16_26 npts=1 sinterval=1, mult=1
New Loadshape.PV_16_27 npts=1 sinterval=1, mult=1
New Loadshape.PV_16_28 npts=1 sinterval=1, mult=1
New Loadshape.PV_16_29 npts=1 sinterval=1, mult=1
New Loadshape.PV_16_30 npts=1 sinterval=1, mult=1
New Loadshape.PV_16_31 npts=1 sinterval=1, mult=1
New Loadshape.PV_16_32 npts=1 sinterval=1, mult=1
New Loadshape.PV_17_1 npts=1 sinterval=1, mult=1
New Loadshape.PV_17_2 npts=1 sinterval=1, mult=1
New Loadshape.PV_17_3 npts=1 sinterval=1, mult=1
New Loadshape.PV_17_4 npts=1 sinterval=1, mult=1
New Loadshape.PV_17_5 npts=1 sinterval=1, mult=1
New Loadshape.PV_17_6 npts=1 sinterval=1, mult=1
New Loadshape.PV_17_7 npts=1 sinterval=1, mult=1
New Loadshape.PV_17_8 npts=1 sinterval=1, mult=1
New Loadshape.PV_17_9 npts=1 sinterval=1, mult=1
New Loadshape.PV_17_10 npts=1 sinterval=1, mult=1
New Loadshape.PV_17_11 npts=1 sinterval=1, mult=1
New Loadshape.PV_17_12 npts=1 sinterval=1, mult=1
New Loadshape.PV_17_13 npts=1 sinterval=1, mult=1
New Loadshape.PV_17_14 npts=1 sinterval=1, mult=1
New Loadshape.PV_17_15 npts=1 sinterval=1, mult=1
New Loadshape.PV_17_16 npts=1 sinterval=1, mult=1
New Loadshape.PV_17_17 npts=1 sinterval=1, mult=1
New Loadshape.PV_17_18 npts=1 sinterval=1, mult=1
New Loadshape.PV_17_19 npts=1 sinterval=1, mult=1
New Loadshape.PV_17_20 npts=1 sinterval=1, mult=1
New Loadshape.PV_17_21 npts=1 sinterval=1, mult=1
New Loadshape.PV_17_22 npts=1 sinterval=1, mult=1
New Loadshape.PV_17_23 npts=1 sinterval=1, mult=1
New Loadshape.PV_17_24 npts=1 sinterval=1, mult=1
New Loadshape.PV_17_25 npts=1 sinterval=1, mult=1
New Loadshape.PV_17_26 npts=1 sinterval=1, mult=1
New Loadshape.PV_17_27 npts=1 sinterval=1, mult=1
New Loadshape.PV_17_28 npts=1 sinterval=1, mult=1
New Loadshape.PV_17_29 npts=1 sinterval=1, mult=1
New Loadshape.PV_17_30 npts=1 sinterval=1, mult=1
New Loadshape.PV_17_31 npts=1 sinterval=1, mult=1
New Loadshape.PV_17_32 npts=1 sinterval=1, mult=1
New Loadshape.PV_18_1 npts=1 sinterval=1, mult=1
New Loadshape.PV_18_2 npts=1 sinterval=1, mult=1
New Loadshape.PV_18_3 npts=1 sinterval=1, mult=1
New Loadshape.PV_18_4 npts=1 sinterval=1, mult=1
New Loadshape.PV_18_5 npts=1 sinterval=1, mult=1
New Loadshape.PV_18_6 npts=1 sinterval=1, mult=1
New Loadshape.PV_18_7 npts=1 sinterval=1, mult=1
New Loadshape.PV_18_8 npts=1 sinterval=1, mult=1
New Loadshape.PV_18_9 npts=1 sinterval=1, mult=1
New Loadshape.PV_18_10 npts=1 sinterval=1, mult=1
New Loadshape.PV_18_11 npts=1 sinterval=1, mult=1
New Loadshape.PV_18_12 npts=1 sinterval=1, mult=1
New Loadshape.PV_18_13 npts=1 sinterval=1, mult=1
New Loadshape.PV_18_14 npts=1 sinterval=1, mult=1
New Loadshape.PV_18_15 npts=1 sinterval=1, mult=1
New Loadshape.PV_18_16 npts=1 sinterval=1, mult=1
New Loadshape.PV_18_17 npts=1 sinterval=1, mult=1
New Loadshape.PV_18_18 npts=1 sinterval=1, mult=1
New Loadshape.PV_18_19 npts=1 sinterval=1, mult=1
New Loadshape.PV_18_20 npts=1 sinterval=1, mult=1
New Loadshape.PV_18_21 npts=1 sinterval=1, mult=1
New Loadshape.PV_18_22 npts=1 sinterval=1, mult=1
New Loadshape.PV_18_23 npts=1 sinterval=1, mult=1
New Loadshape.PV_18_24 npts=1 sinterval=1, mult=1
New Loadshape.PV_18_25 npts=1 sinterval=1, mult=1
New Loadshape.PV_18_26 npts=1 sinterval=1, mult=1
New Loadshape.PV_18_27 npts=1 sinterval=1, mult=1
New Loadshape.PV_18_28 npts=1 sinterval=1, mult=1
New Loadshape.PV_18_29 npts=1 sinterval=1, mult=1
New Loadshape.PV_18_30 npts=1 sinterval=1, mult=1
New Loadshape.PV_18_31 npts=1 sinterval=1, mult=1
New Loadshape.PV_18_32 npts=1 sinterval=1, mult=1
New Loadshape.PV_19_1 npts=1 sinterval=1, mult=1
New Loadshape.PV_19_2 npts=1 sinterval=1, mult=1
New Loadshape.PV_19_3 npts=1 sinterval=1, mult=1
New Loadshape.PV_19_4 npts=1 sinterval=1, mult=1
New Loadshape.PV_19_5 npts=1 sinterval=1, mult=1
New Loadshape.PV_19_6 npts=1 sinterval=1, mult=1
New Loadshape.PV_19_7 npts=1 sinterval=1, mult=1
New Loadshape.PV_19_8 npts=1 sinterval=1, mult=1
New Loadshape.PV_19_9 npts=1 sinterval=1, mult=1
New Loadshape.PV_19_10 npts=1 sinterval=1, mult=1
New Loadshape.PV_19_11 npts=1 sinterval=1, mult=1
New Loadshape.PV_19_12 npts=1 sinterval=1, mult=1
New Loadshape.PV_19_13 npts=1 sinterval=1, mult=1
New Loadshape.PV_19_14 npts=1 sinterval=1, mult=1
New Loadshape.PV_19_15 npts=1 sinterval=1, mult=1
New Loadshape.PV_19_16 npts=1 sinterval=1, mult=1
New Loadshape.PV_19_17 npts=1 sinterval=1, mult=1
New Loadshape.PV_19_18 npts=1 sinterval=1, mult=1
New Loadshape.PV_19_19 npts=1 sinterval=1, mult=1
New Loadshape.PV_19_20 npts=1 sinterval=1, mult=1
New Loadshape.PV_19_21 npts=1 sinterval=1, mult=1
New Loadshape.PV_19_22 npts=1 sinterval=1, mult=1
New Loadshape.PV_19_23 npts=1 sinterval=1, mult=1
New Loadshape.PV_19_24 npts=1 sinterval=1, mult=1
New Loadshape.PV_19_25 npts=1 sinterval=1, mult=1
New Loadshape.PV_19_26 npts=1 sinterval=1, mult=1
New Loadshape.PV_19_27 npts=1 sinterval=1, mult=1
New Loadshape.PV_19_28 npts=1 sinterval=1, mult=1
New Loadshape.PV_19_29 npts=1 sinterval=1, mult=1
New Loadshape.PV_19_30 npts=1 sinterval=1, mult=1
New Loadshape.PV_19_31 npts=1 sinterval=1, mult=1
New Loadshape.PV_19_32 npts=1 sinterval=1, mult=1
New Loadshape.PV_20_1 npts=1 sinterval=1, mult=1